Version 4
SHEET 1 1536 680
WIRE 48 -160 0 -160
WIRE 224 -160 128 -160
WIRE 320 -160 288 -160
WIRE 0 -80 0 -160
WIRE 0 -80 -32 -80
WIRE 112 -80 0 -80
WIRE 320 -80 320 -160
WIRE 320 -80 192 -80
WIRE 352 -80 320 -80
WIRE -576 32 -736 32
WIRE -336 32 -576 32
WIRE -32 32 -32 -80
WIRE -32 32 -336 32
WIRE 16 32 -32 32
WIRE 352 32 352 -80
WIRE 352 32 304 32
WIRE -736 112 -736 32
WIRE -576 128 -576 32
WIRE -336 128 -336 32
WIRE -96 128 -96 112
WIRE 16 128 -96 128
WIRE 464 128 304 128
WIRE 544 128 464 128
WIRE 704 128 544 128
WIRE 800 128 704 128
WIRE 832 128 800 128
WIRE 960 128 928 128
WIRE 1072 128 960 128
WIRE 1280 128 1280 80
WIRE 1280 128 1072 128
WIRE 1360 128 1280 128
WIRE 464 144 464 128
WIRE 544 176 544 128
WIRE 704 176 704 128
WIRE 960 176 960 128
WIRE 1072 176 1072 128
WIRE 16 224 -208 224
WIRE 464 224 464 208
WIRE 464 224 304 224
WIRE 480 224 464 224
WIRE 800 224 800 128
WIRE 1360 256 1360 128
WIRE 480 288 480 224
WIRE 544 288 544 256
WIRE 544 288 480 288
WIRE 912 288 912 176
WIRE 960 288 960 256
WIRE 960 288 912 288
WIRE 544 304 544 288
WIRE 16 320 -240 320
WIRE 384 320 304 320
WIRE -736 352 -736 192
WIRE -576 352 -576 192
WIRE -576 352 -736 352
WIRE 800 352 800 304
WIRE 944 352 800 352
WIRE 912 400 912 288
WIRE 16 416 -64 416
WIRE 320 416 304 416
WIRE 800 480 800 352
WIRE 864 480 800 480
WIRE -208 496 -208 224
WIRE -64 512 -64 416
WIRE 384 512 384 320
WIRE -736 608 -736 352
WIRE -336 608 -336 192
WIRE -208 608 -208 576
WIRE -64 608 -64 576
WIRE 160 608 160 464
WIRE 320 608 320 416
WIRE 384 608 384 576
WIRE 544 608 544 384
WIRE 704 608 704 240
WIRE 912 608 912 496
WIRE 1072 608 1072 240
WIRE 1360 608 1360 336
FLAG -736 608 0
FLAG -208 608 0
FLAG -64 608 0
FLAG 384 608 0
FLAG 544 608 0
FLAG -336 608 0
FLAG 320 608 0
FLAG 1072 608 0
FLAG 704 608 0
FLAG 1360 608 0
FLAG 160 608 0
FLAG -240 320 PGOOD
IOPIN -240 320 In
FLAG 1280 80 VOUT
FLAG 912 608 0
FLAG 944 352 PGOOD
IOPIN 944 352 Out
SYMBOL PowerProducts\\LTC3105 160 224 R0
SYMATTR InstName U1
SYMBOL cap 1056 176 R0
SYMATTR InstName C1
SYMATTR Value 1m
SYMATTR SpiceLine Rser=20
SYMBOL cap 688 176 R0
SYMATTR InstName C2
SYMATTR Value 10µ
SYMBOL res 528 160 R0
SYMATTR InstName R1
SYMATTR Value 1meg
SYMBOL res 528 288 R0
SYMATTR InstName R2
SYMATTR Value 430k
SYMBOL cap 368 512 R0
SYMATTR InstName C3
SYMATTR Value 4.7µ
SYMBOL cap -80 512 R0
SYMATTR InstName C4
SYMATTR Value 1µ
SYMBOL res -224 480 R0
SYMATTR InstName R3
SYMATTR Value 200k
SYMBOL cap -352 128 R0
SYMATTR InstName C5
SYMATTR Value 10µ
SYMBOL ind 96 -64 R270
WINDOW 0 32 56 VTop 2
WINDOW 3 5 56 VBottom 2
SYMATTR InstName L1
SYMATTR Value 22µ
SYMATTR SpiceLine Rser=100m
SYMBOL cap 448 144 R0
SYMATTR InstName C6
SYMATTR Value 22p
SYMBOL current -736 192 R180
WINDOW 0 24 80 Left 2
WINDOW 3 24 0 Left 2
WINDOW 123 0 0 Left 2
WINDOW 39 0 0 Left 2
SYMATTR InstName I1
SYMATTR Value PULSE(0 40m 1 10u 0 0.2 10 1)
SYMBOL res 1344 240 R0
SYMATTR InstName R4
SYMATTR Value 20k
SYMBOL zener -560 192 R180
WINDOW 0 24 64 Left 2
WINDOW 3 24 0 Left 2
SYMATTR InstName D2
SYMATTR Value 1N750
SYMATTR Description Diode
SYMATTR Type diode
SYMBOL pmos 832 176 R270
SYMATTR InstName M1
SYMATTR Value FDS6375
SYMBOL nmos 864 400 R0
SYMATTR InstName M2
SYMATTR Value IRLML6246
SYMBOL res 784 208 R0
SYMATTR InstName R5
SYMATTR Value 1meg
SYMBOL res 944 160 R0
SYMATTR InstName R6
SYMATTR Value 1meg
SYMBOL res 144 -176 R90
WINDOW 0 0 56 VBottom 2
WINDOW 3 32 56 VTop 2
SYMATTR InstName R7
SYMATTR Value 100
SYMBOL cap 288 -176 R90
WINDOW 0 0 32 VBottom 2
WINDOW 3 32 32 VTop 2
SYMATTR InstName C7
SYMATTR Value 10n
TEXT -544 632 Left 2 !.tran 10 startup
